10

Cl        -0.10382        0.08139       -0.12554
O          1.40475        0.54599       -1.24631
O         -0.39179       -1.75022       -0.92502
O         -1.38055        0.89390       -0.92894
H          0.56922        0.92445       -1.46355
H         -0.93660        0.90825       -0.01968
H          0.28334       -1.09127       -1.20768
H         -1.52796       -0.04371       -0.95420
H         -0.30045       -1.59861        0.06724
H          1.23674        0.55946       -0.24668
